!!!!!!!!!!!!!!!!!!!!!!!!!!!!!!!!!!!!!!!!!!!!!!!!!!!!!!!!!!!!!!!!!!!!!!!!!!!!!!!!!!!
!          		     отводы входов г10 перед тройником кубиком  				  !
!	     		   				  			  									  !
!              	               				  									  !
!!!!!!!!!!!!!!!!!!!!!!!!!!!!!!!!!!!!!!!!!!!!!!!!!!!!!!!!!!!!!!!!!!!!!!!!!!!!!!!!!!!

finish
/FILNAME, Vihod_na_kol, 1
/clear

/prep7  


!>>> --- Свойства материала 

  emod1=2.05e+11  			!модуль упругости
  dens1=7850				!плотность
  mp,ex,1,emod1
  mp,dens,1,dens1
  mp,alpx,1,13.1e-6
  mp,mu,101,0.2
  
  
  emod2=2.05e+13  			!модуль упругости
  dens2=7850				!плотность
  mp,ex,2, emod2
  mp,dens,2,dens2
  mp,alpx,2,13.1e-6
  mp,mu,102,0.2
  
!<<<
!>>> ! Задание размеров
D_tr=0.325
Th_tr=0.022

!<<<
!Давление
P=9800000

!!!!!!!!!!!!!!!!!!!!!!!!!!!!!!!!!!!!!!!!!!!!!!!!!!!!!!!!!!!!!!!!!!!!!!!!!!!!!!!!!!!!!!!!!!!!!!!!!!!!!!!!!!!!!!!!!!!!!!!!!!!!!!!!!!!!!!!!!!!!!!!!!!!!!!!!
!!!!!
!!!!!
!!!!!							Г Е О М Е Т Р И Я
!!!!!
!!!!!!!!!!!!!!!!!!!!!!!!!!!!!!!!!!!!!!!!!!!!!!!!!!!!!!!!!!!!!!!!!!!!!!!!!!!!!!!!!!!!!!!!!!!!!!!!!!!!!!!!!!!!!!!!!!!!!!!!!!!!!!!!!!!!!!!!!!!!!!!!!!!!!!!!
!!!!!!!!!!!!!!!!!!!!!!!!!!!!!!!!!!!!!!!!!!!!!!!!!!!!!!!!!!!!!!!!!!!!!!!!!!!!!!!!!!!!!!!!!!!!!!!!!!!!!!!!!!!!!!!!!!!!!!!!!!!!!!!!!!!!!!!!!!!!!!!!!!!!!!!!

k, 1, 1
k, 2, 1.785, 
k, 3, 1.785, , -3.55, 
k, 4, 1, , 1

l, 1, 2
l, 2, 3

LFILLT,1,2,D_tr*1.5, , 

circle,3,D_tr/2, 	 ! начало (Основная труба)

Adrag,4,5,6,7,,,2,3, 1		!Экструзия поверхностей


!!!!!!!!!!!!!!!!!!!!!!!!!!!!!!!!!!!!!!!!!!!!!!!!!!!!!!!!!!!!!!!!!!!!!!!!!!!!!!!!!!!!!!!!!!!!!!!!!!!!!!!!!!!!!!!!!!!!!!!!!!!!!!!!!!!!!!!!!!!!!!!!!!!!!!!!!
!!!!!
!!!!!
!!!!!							Разбиение
!!!!!
!!!!!
!!!!!!!!!!!!!!!!!!!!!!!!!!!!!!!!!!!!!!!!!!!!!!!!!!!!!!!!!!!!!!!!!!!!!!!!!!!!!!!!!!!!!!!!!!!!!!!!!!!!!!!!!!!!!!!!!!!!!!!!!!!!!!!!!!!!!!!!!!!!!!!!!!!!!!!!!!


ET,1, shell 93
r,1,Th_tr,Th_tr,Th_tr,Th_tr
r, 6, 0.1, 0.1, 0.1, 0.1

real,1
esize,0.05

amesh, all

A, 1, 20, 21
A, 1, 21, 22
A, 1, 22, 19
A, 1, 19, 20

A, 3, 8, 7
A, 3, 9, 8
A, 3, 10, 9
A, 3, 7, 10

esize, 0.02

mat, 2
real, 6


amesh, 13, 20, 1


P=12125000! 9800000
sfe,all,,pres,,p

PARRES,new,'hol012par',' ',' '										! подгрузка параметров со стержневой модели

otv = 2														! номер отвода (E - 1, D - 2, C - 3, B - 4, A - 5) 

dk, 1, ux, otv10res(otv,2,3)
dk, 1, uy, otv10res(otv,2,4)
dk, 1, uz, otv10res(otv,2,5)
dk, 1, rotx, otv10res(otv,2,6)
dk, 1, roty, otv10res(otv,2,7)
dk, 1, rotz, otv10res(otv,2,8)

dk, 3, ux, otv10res(otv,1,3)
dk, 3, uy, otv10res(otv,1,4)
dk, 3, uz, otv10res(otv,1,5)
dk, 3, rotx, otv10res(otv,1,6)
dk, 3, roty, otv10res(otv,1,7)
dk, 3, rotz, otv10res(otv,1,8)	



nummrg,node


!MP,reft,1,-270
!mp,reft,2,-270
/solu
nlgeom,1
solve

FLST,5,355,2,ORDE,26
FITEM,5,1489
FITEM,5,-1586   
FITEM,5,1589
FITEM,5,-1591   
FITEM,5,1593
FITEM,5,1596
FITEM,5,-1597   
FITEM,5,1599
FITEM,5,-1668   
FITEM,5,1672
FITEM,5,-1673   
FITEM,5,1676
FITEM,5,-1677   
FITEM,5,1679
FITEM,5,-1747   
FITEM,5,1750
FITEM,5,-1752   
FITEM,5,1754
FITEM,5,1756
FITEM,5,1759
! ... 6 like lines cut
ESEL,S, , ,P51X 
FINISH  
/POST1  
!*  
/EFACET,1   

FLST,5,79,2,ORDE,24 
FITEM,5,1683
FITEM,5,-1684   
FITEM,5,1689
FITEM,5,-1695   
FITEM,5,1699
FITEM,5,-1713   
FITEM,5,1725
FITEM,5,-1738   
FITEM,5,1751
FITEM,5,-1752   
FITEM,5,1759
FITEM,5,-1760   
FITEM,5,1763
FITEM,5,1767
FITEM,5,-1772   
FITEM,5,1787
FITEM,5,1790
FITEM,5,1812
FITEM,5,-1822   
FITEM,5,1842
! ... 4 like lines cut
ESEL,R, , ,P51X 
/REPLOT 
/VIEW,1,1,1,1   
/ANG,1  
/REP,FAST   

PLNSOL, S,EQV, 0,1.0









